!-Generator IDFEditor 1.47
!-Option OriginalOrderTop UseSpecialFormat

!-NOTE: All comments with '!-' are ignored by the IDFEditor and are generated automatically.
!-      Use '!' comments if they need to be retained when using the IDFEditor.

Construction,
    Exterior Window5,        !- Name
    6YNEshuangcengloweboli;  !- Outside Layer

Construction,
    Exterior Window6,        !- Name
    6CEBzheyangxingshuangcengloweboli;  !- Outside Layer

Construction,
    Exterior Window4,        !- Name
    6CEBgaotouxingshuangcengloweboli;  !- Outside Layer

WindowMaterial:SimpleGlazingSystem,
    6CEBgaotouxingshuangcengloweboli,  !- Name
    1.63,                    !- U-Factor {W/m2-K}
    0.52;                    !- Solar Heat Gain Coefficient

WindowMaterial:SimpleGlazingSystem,
    6YNEshuangcengloweboli,  !- Name
    1.65,                    !- U-Factor {W/m2-K}
    0.44;                    !- Solar Heat Gain Coefficient

WindowMaterial:SimpleGlazingSystem,
    6CEBzheyangxingshuangcengloweboli,  !- Name
    1.63,                    !- U-Factor {W/m2-K}
    0.34;                    !- Solar Heat Gain Coefficient

ZoneVentilation:DesignFlowRate,
    jichukitchen1.1,         !- Name
    kitchen1.1,              !- Zone or ZoneList Name
    jichutongfengqita,       !- Schedule Name
    AirChanges/Hour,         !- Design Flow Rate Calculation Method
    ,                        !- Design Flow Rate {m3/s}
    ,                        !- Flow Rate per Zone Floor Area {m3/s-m2}
    ,                        !- Flow Rate per Person {m3/s-person}
    4,                       !- Air Changes per Hour {1/hr}
    Natural,                 !- Ventilation Type
    0,                       !- Fan Pressure Rise {Pa}
    1,                       !- Fan Total Efficiency
    0.606,                   !- Constant Term Coefficient
    0.036,                   !- Temperature Term Coefficient
    0.1177,                  !- Velocity Term Coefficient
    0,                       !- Velocity Squared Term Coefficient
    ,                        !- Minimum Indoor Temperature {C}
    ,                        !- Minimum Indoor Temperature Schedule Name
    ,                        !- Maximum Indoor Temperature {C}
    ,                        !- Maximum Indoor Temperature Schedule Name
    -100,                    !- Delta Temperature {deltaC}
    ,                        !- Delta Temperature Schedule Name
    ,                        !- Minimum Outdoor Temperature {C}
    ,                        !- Minimum Outdoor Temperature Schedule Name
    ,                        !- Maximum Outdoor Temperature {C}
    ,                        !- Maximum Outdoor Temperature Schedule Name
    40;                      !- Maximum Wind Speed {m/s}

ZoneVentilation:DesignFlowRate,
    jichukitchen1.2,         !- Name
    kitchen1.2,              !- Zone or ZoneList Name
    jichutongfengqita,       !- Schedule Name
    AirChanges/Hour,         !- Design Flow Rate Calculation Method
    ,                        !- Design Flow Rate {m3/s}
    ,                        !- Flow Rate per Zone Floor Area {m3/s-m2}
    ,                        !- Flow Rate per Person {m3/s-person}
    4,                       !- Air Changes per Hour {1/hr}
    Natural,                 !- Ventilation Type
    0,                       !- Fan Pressure Rise {Pa}
    1,                       !- Fan Total Efficiency
    0.606,                   !- Constant Term Coefficient
    0.036,                   !- Temperature Term Coefficient
    0.1177,                  !- Velocity Term Coefficient
    0,                       !- Velocity Squared Term Coefficient
    ,                        !- Minimum Indoor Temperature {C}
    ,                        !- Minimum Indoor Temperature Schedule Name
    ,                        !- Maximum Indoor Temperature {C}
    ,                        !- Maximum Indoor Temperature Schedule Name
    -100,                    !- Delta Temperature {deltaC}
    ,                        !- Delta Temperature Schedule Name
    ,                        !- Minimum Outdoor Temperature {C}
    ,                        !- Minimum Outdoor Temperature Schedule Name
    ,                        !- Maximum Outdoor Temperature {C}
    ,                        !- Maximum Outdoor Temperature Schedule Name
    40;                      !- Maximum Wind Speed {m/s}

ZoneVentilation:DesignFlowRate,
    jichukitchen1.3,         !- Name
    kitchen1.3,              !- Zone or ZoneList Name
    jichutongfengqita,       !- Schedule Name
    AirChanges/Hour,         !- Design Flow Rate Calculation Method
    ,                        !- Design Flow Rate {m3/s}
    ,                        !- Flow Rate per Zone Floor Area {m3/s-m2}
    ,                        !- Flow Rate per Person {m3/s-person}
    4,                       !- Air Changes per Hour {1/hr}
    Natural,                 !- Ventilation Type
    0,                       !- Fan Pressure Rise {Pa}
    1,                       !- Fan Total Efficiency
    0.606,                   !- Constant Term Coefficient
    0.036,                   !- Temperature Term Coefficient
    0.1177,                  !- Velocity Term Coefficient
    0,                       !- Velocity Squared Term Coefficient
    ,                        !- Minimum Indoor Temperature {C}
    ,                        !- Minimum Indoor Temperature Schedule Name
    ,                        !- Maximum Indoor Temperature {C}
    ,                        !- Maximum Indoor Temperature Schedule Name
    -100,                    !- Delta Temperature {deltaC}
    ,                        !- Delta Temperature Schedule Name
    ,                        !- Minimum Outdoor Temperature {C}
    ,                        !- Minimum Outdoor Temperature Schedule Name
    ,                        !- Maximum Outdoor Temperature {C}
    ,                        !- Maximum Outdoor Temperature Schedule Name
    40;                      !- Maximum Wind Speed {m/s}

ZoneVentilation:DesignFlowRate,
    jichukitchen1.4,         !- Name
    kitchen1.4,              !- Zone or ZoneList Name
    jichutongfengqita,       !- Schedule Name
    AirChanges/Hour,         !- Design Flow Rate Calculation Method
    ,                        !- Design Flow Rate {m3/s}
    ,                        !- Flow Rate per Zone Floor Area {m3/s-m2}
    ,                        !- Flow Rate per Person {m3/s-person}
    4,                       !- Air Changes per Hour {1/hr}
    Natural,                 !- Ventilation Type
    0,                       !- Fan Pressure Rise {Pa}
    1,                       !- Fan Total Efficiency
    0.606,                   !- Constant Term Coefficient
    0.036,                   !- Temperature Term Coefficient
    0.1177,                  !- Velocity Term Coefficient
    0,                       !- Velocity Squared Term Coefficient
    ,                        !- Minimum Indoor Temperature {C}
    ,                        !- Minimum Indoor Temperature Schedule Name
    ,                        !- Maximum Indoor Temperature {C}
    ,                        !- Maximum Indoor Temperature Schedule Name
    -100,                    !- Delta Temperature {deltaC}
    ,                        !- Delta Temperature Schedule Name
    ,                        !- Minimum Outdoor Temperature {C}
    ,                        !- Minimum Outdoor Temperature Schedule Name
    ,                        !- Maximum Outdoor Temperature {C}
    ,                        !- Maximum Outdoor Temperature Schedule Name
    40;                      !- Maximum Wind Speed {m/s}

ZoneVentilation:DesignFlowRate,
    jichulivingroom1.1,      !- Name
    livingroom1.1,           !- Zone or ZoneList Name
    jichutongfengketing,     !- Schedule Name
    AirChanges/Hour,         !- Design Flow Rate Calculation Method
    ,                        !- Design Flow Rate {m3/s}
    ,                        !- Flow Rate per Zone Floor Area {m3/s-m2}
    ,                        !- Flow Rate per Person {m3/s-person}
    4,                       !- Air Changes per Hour {1/hr}
    Natural,                 !- Ventilation Type
    0,                       !- Fan Pressure Rise {Pa}
    1,                       !- Fan Total Efficiency
    0.606,                   !- Constant Term Coefficient
    0.036,                   !- Temperature Term Coefficient
    0.1177,                  !- Velocity Term Coefficient
    0,                       !- Velocity Squared Term Coefficient
    ,                        !- Minimum Indoor Temperature {C}
    ,                        !- Minimum Indoor Temperature Schedule Name
    ,                        !- Maximum Indoor Temperature {C}
    ,                        !- Maximum Indoor Temperature Schedule Name
    -100,                    !- Delta Temperature {deltaC}
    ,                        !- Delta Temperature Schedule Name
    ,                        !- Minimum Outdoor Temperature {C}
    ,                        !- Minimum Outdoor Temperature Schedule Name
    ,                        !- Maximum Outdoor Temperature {C}
    ,                        !- Maximum Outdoor Temperature Schedule Name
    40;                      !- Maximum Wind Speed {m/s}

ZoneVentilation:DesignFlowRate,
    jichulivingroom1.2,      !- Name
    livingroom1.2,           !- Zone or ZoneList Name
    jichutongfengketing,     !- Schedule Name
    AirChanges/Hour,         !- Design Flow Rate Calculation Method
    ,                        !- Design Flow Rate {m3/s}
    ,                        !- Flow Rate per Zone Floor Area {m3/s-m2}
    ,                        !- Flow Rate per Person {m3/s-person}
    4,                       !- Air Changes per Hour {1/hr}
    Natural,                 !- Ventilation Type
    0,                       !- Fan Pressure Rise {Pa}
    1,                       !- Fan Total Efficiency
    0.606,                   !- Constant Term Coefficient
    0.036,                   !- Temperature Term Coefficient
    0.1177,                  !- Velocity Term Coefficient
    0,                       !- Velocity Squared Term Coefficient
    ,                        !- Minimum Indoor Temperature {C}
    ,                        !- Minimum Indoor Temperature Schedule Name
    ,                        !- Maximum Indoor Temperature {C}
    ,                        !- Maximum Indoor Temperature Schedule Name
    -100,                    !- Delta Temperature {deltaC}
    ,                        !- Delta Temperature Schedule Name
    ,                        !- Minimum Outdoor Temperature {C}
    ,                        !- Minimum Outdoor Temperature Schedule Name
    ,                        !- Maximum Outdoor Temperature {C}
    ,                        !- Maximum Outdoor Temperature Schedule Name
    40;                      !- Maximum Wind Speed {m/s}

ZoneVentilation:DesignFlowRate,
    jichulivingroom1.3,      !- Name
    livingroom1.3,           !- Zone or ZoneList Name
    jichutongfengketing,     !- Schedule Name
    AirChanges/Hour,         !- Design Flow Rate Calculation Method
    ,                        !- Design Flow Rate {m3/s}
    ,                        !- Flow Rate per Zone Floor Area {m3/s-m2}
    ,                        !- Flow Rate per Person {m3/s-person}
    4,                       !- Air Changes per Hour {1/hr}
    Natural,                 !- Ventilation Type
    0,                       !- Fan Pressure Rise {Pa}
    1,                       !- Fan Total Efficiency
    0.606,                   !- Constant Term Coefficient
    0.036,                   !- Temperature Term Coefficient
    0.1177,                  !- Velocity Term Coefficient
    0,                       !- Velocity Squared Term Coefficient
    ,                        !- Minimum Indoor Temperature {C}
    ,                        !- Minimum Indoor Temperature Schedule Name
    ,                        !- Maximum Indoor Temperature {C}
    ,                        !- Maximum Indoor Temperature Schedule Name
    -100,                    !- Delta Temperature {deltaC}
    ,                        !- Delta Temperature Schedule Name
    ,                        !- Minimum Outdoor Temperature {C}
    ,                        !- Minimum Outdoor Temperature Schedule Name
    ,                        !- Maximum Outdoor Temperature {C}
    ,                        !- Maximum Outdoor Temperature Schedule Name
    40;                      !- Maximum Wind Speed {m/s}

ZoneVentilation:DesignFlowRate,
    jichulivingroom1.4,      !- Name
    livingroom1.4,           !- Zone or ZoneList Name
    jichutongfengketing,     !- Schedule Name
    AirChanges/Hour,         !- Design Flow Rate Calculation Method
    ,                        !- Design Flow Rate {m3/s}
    ,                        !- Flow Rate per Zone Floor Area {m3/s-m2}
    ,                        !- Flow Rate per Person {m3/s-person}
    4,                       !- Air Changes per Hour {1/hr}
    Natural,                 !- Ventilation Type
    0,                       !- Fan Pressure Rise {Pa}
    1,                       !- Fan Total Efficiency
    0.606,                   !- Constant Term Coefficient
    0.036,                   !- Temperature Term Coefficient
    0.1177,                  !- Velocity Term Coefficient
    0,                       !- Velocity Squared Term Coefficient
    ,                        !- Minimum Indoor Temperature {C}
    ,                        !- Minimum Indoor Temperature Schedule Name
    ,                        !- Maximum Indoor Temperature {C}
    ,                        !- Maximum Indoor Temperature Schedule Name
    -100,                    !- Delta Temperature {deltaC}
    ,                        !- Delta Temperature Schedule Name
    ,                        !- Minimum Outdoor Temperature {C}
    ,                        !- Minimum Outdoor Temperature Schedule Name
    ,                        !- Maximum Outdoor Temperature {C}
    ,                        !- Maximum Outdoor Temperature Schedule Name
    40;                      !- Maximum Wind Speed {m/s}

ZoneVentilation:DesignFlowRate,
    jichubedroom1.1,         !- Name
    bedroom1.1,              !- Zone or ZoneList Name
    jichutongfengbedroom,    !- Schedule Name
    AirChanges/Hour,         !- Design Flow Rate Calculation Method
    ,                        !- Design Flow Rate {m3/s}
    ,                        !- Flow Rate per Zone Floor Area {m3/s-m2}
    ,                        !- Flow Rate per Person {m3/s-person}
    4,                       !- Air Changes per Hour {1/hr}
    Natural,                 !- Ventilation Type
    0,                       !- Fan Pressure Rise {Pa}
    1,                       !- Fan Total Efficiency
    0.606,                   !- Constant Term Coefficient
    0.036,                   !- Temperature Term Coefficient
    0.1177,                  !- Velocity Term Coefficient
    0,                       !- Velocity Squared Term Coefficient
    ,                        !- Minimum Indoor Temperature {C}
    ,                        !- Minimum Indoor Temperature Schedule Name
    ,                        !- Maximum Indoor Temperature {C}
    ,                        !- Maximum Indoor Temperature Schedule Name
    -100,                    !- Delta Temperature {deltaC}
    ,                        !- Delta Temperature Schedule Name
    ,                        !- Minimum Outdoor Temperature {C}
    ,                        !- Minimum Outdoor Temperature Schedule Name
    ,                        !- Maximum Outdoor Temperature {C}
    ,                        !- Maximum Outdoor Temperature Schedule Name
    40;                      !- Maximum Wind Speed {m/s}

ZoneVentilation:DesignFlowRate,
    jichubedroom1.2,         !- Name
    bedroom1.2,              !- Zone or ZoneList Name
    jichutongfengbedroom,    !- Schedule Name
    AirChanges/Hour,         !- Design Flow Rate Calculation Method
    ,                        !- Design Flow Rate {m3/s}
    ,                        !- Flow Rate per Zone Floor Area {m3/s-m2}
    ,                        !- Flow Rate per Person {m3/s-person}
    4,                       !- Air Changes per Hour {1/hr}
    Natural,                 !- Ventilation Type
    0,                       !- Fan Pressure Rise {Pa}
    1,                       !- Fan Total Efficiency
    0.606,                   !- Constant Term Coefficient
    0.036,                   !- Temperature Term Coefficient
    0.1177,                  !- Velocity Term Coefficient
    0,                       !- Velocity Squared Term Coefficient
    ,                        !- Minimum Indoor Temperature {C}
    ,                        !- Minimum Indoor Temperature Schedule Name
    ,                        !- Maximum Indoor Temperature {C}
    ,                        !- Maximum Indoor Temperature Schedule Name
    -100,                    !- Delta Temperature {deltaC}
    ,                        !- Delta Temperature Schedule Name
    ,                        !- Minimum Outdoor Temperature {C}
    ,                        !- Minimum Outdoor Temperature Schedule Name
    ,                        !- Maximum Outdoor Temperature {C}
    ,                        !- Maximum Outdoor Temperature Schedule Name
    40;                      !- Maximum Wind Speed {m/s}

ZoneVentilation:DesignFlowRate,
    jichubedroom1.3,         !- Name
    bedroom1.3,              !- Zone or ZoneList Name
    jichutongfengbedroom,    !- Schedule Name
    AirChanges/Hour,         !- Design Flow Rate Calculation Method
    ,                        !- Design Flow Rate {m3/s}
    ,                        !- Flow Rate per Zone Floor Area {m3/s-m2}
    ,                        !- Flow Rate per Person {m3/s-person}
    4,                       !- Air Changes per Hour {1/hr}
    Natural,                 !- Ventilation Type
    0,                       !- Fan Pressure Rise {Pa}
    1,                       !- Fan Total Efficiency
    0.606,                   !- Constant Term Coefficient
    0.036,                   !- Temperature Term Coefficient
    0.1177,                  !- Velocity Term Coefficient
    0,                       !- Velocity Squared Term Coefficient
    ,                        !- Minimum Indoor Temperature {C}
    ,                        !- Minimum Indoor Temperature Schedule Name
    ,                        !- Maximum Indoor Temperature {C}
    ,                        !- Maximum Indoor Temperature Schedule Name
    -100,                    !- Delta Temperature {deltaC}
    ,                        !- Delta Temperature Schedule Name
    ,                        !- Minimum Outdoor Temperature {C}
    ,                        !- Minimum Outdoor Temperature Schedule Name
    ,                        !- Maximum Outdoor Temperature {C}
    ,                        !- Maximum Outdoor Temperature Schedule Name
    40;                      !- Maximum Wind Speed {m/s}

ZoneVentilation:DesignFlowRate,
    jichubedroom1.4,         !- Name
    bedroom1.4,              !- Zone or ZoneList Name
    jichutongfengbedroom,    !- Schedule Name
    AirChanges/Hour,         !- Design Flow Rate Calculation Method
    ,                        !- Design Flow Rate {m3/s}
    ,                        !- Flow Rate per Zone Floor Area {m3/s-m2}
    ,                        !- Flow Rate per Person {m3/s-person}
    4,                       !- Air Changes per Hour {1/hr}
    Natural,                 !- Ventilation Type
    0,                       !- Fan Pressure Rise {Pa}
    1,                       !- Fan Total Efficiency
    0.606,                   !- Constant Term Coefficient
    0.036,                   !- Temperature Term Coefficient
    0.1177,                  !- Velocity Term Coefficient
    0,                       !- Velocity Squared Term Coefficient
    ,                        !- Minimum Indoor Temperature {C}
    ,                        !- Minimum Indoor Temperature Schedule Name
    ,                        !- Maximum Indoor Temperature {C}
    ,                        !- Maximum Indoor Temperature Schedule Name
    -100,                    !- Delta Temperature {deltaC}
    ,                        !- Delta Temperature Schedule Name
    ,                        !- Minimum Outdoor Temperature {C}
    ,                        !- Minimum Outdoor Temperature Schedule Name
    ,                        !- Maximum Outdoor Temperature {C}
    ,                        !- Maximum Outdoor Temperature Schedule Name
    40;                      !- Maximum Wind Speed {m/s}

ZoneVentilation:DesignFlowRate,
    jichubedroom1.5,         !- Name
    bedroom1.5,              !- Zone or ZoneList Name
    jichutongfengbedroom,    !- Schedule Name
    AirChanges/Hour,         !- Design Flow Rate Calculation Method
    ,                        !- Design Flow Rate {m3/s}
    ,                        !- Flow Rate per Zone Floor Area {m3/s-m2}
    ,                        !- Flow Rate per Person {m3/s-person}
    4,                       !- Air Changes per Hour {1/hr}
    Natural,                 !- Ventilation Type
    0,                       !- Fan Pressure Rise {Pa}
    1,                       !- Fan Total Efficiency
    0.606,                   !- Constant Term Coefficient
    0.036,                   !- Temperature Term Coefficient
    0.1177,                  !- Velocity Term Coefficient
    0,                       !- Velocity Squared Term Coefficient
    ,                        !- Minimum Indoor Temperature {C}
    ,                        !- Minimum Indoor Temperature Schedule Name
    ,                        !- Maximum Indoor Temperature {C}
    ,                        !- Maximum Indoor Temperature Schedule Name
    -100,                    !- Delta Temperature {deltaC}
    ,                        !- Delta Temperature Schedule Name
    ,                        !- Minimum Outdoor Temperature {C}
    ,                        !- Minimum Outdoor Temperature Schedule Name
    ,                        !- Maximum Outdoor Temperature {C}
    ,                        !- Maximum Outdoor Temperature Schedule Name
    40;                      !- Maximum Wind Speed {m/s}

ZoneVentilation:DesignFlowRate,
    jichubedroom1.6,         !- Name
    bedroom1.6,              !- Zone or ZoneList Name
    jichutongfengbedroom,    !- Schedule Name
    AirChanges/Hour,         !- Design Flow Rate Calculation Method
    ,                        !- Design Flow Rate {m3/s}
    ,                        !- Flow Rate per Zone Floor Area {m3/s-m2}
    ,                        !- Flow Rate per Person {m3/s-person}
    4,                       !- Air Changes per Hour {1/hr}
    Natural,                 !- Ventilation Type
    0,                       !- Fan Pressure Rise {Pa}
    1,                       !- Fan Total Efficiency
    0.606,                   !- Constant Term Coefficient
    0.036,                   !- Temperature Term Coefficient
    0.1177,                  !- Velocity Term Coefficient
    0,                       !- Velocity Squared Term Coefficient
    ,                        !- Minimum Indoor Temperature {C}
    ,                        !- Minimum Indoor Temperature Schedule Name
    ,                        !- Maximum Indoor Temperature {C}
    ,                        !- Maximum Indoor Temperature Schedule Name
    -100,                    !- Delta Temperature {deltaC}
    ,                        !- Delta Temperature Schedule Name
    ,                        !- Minimum Outdoor Temperature {C}
    ,                        !- Minimum Outdoor Temperature Schedule Name
    ,                        !- Maximum Outdoor Temperature {C}
    ,                        !- Maximum Outdoor Temperature Schedule Name
    40;                      !- Maximum Wind Speed {m/s}

ZoneVentilation:DesignFlowRate,
    jichubedroom1.7,         !- Name
    bedroom1.7,              !- Zone or ZoneList Name
    jichutongfengbedroom,    !- Schedule Name
    AirChanges/Hour,         !- Design Flow Rate Calculation Method
    ,                        !- Design Flow Rate {m3/s}
    ,                        !- Flow Rate per Zone Floor Area {m3/s-m2}
    ,                        !- Flow Rate per Person {m3/s-person}
    4,                       !- Air Changes per Hour {1/hr}
    Natural,                 !- Ventilation Type
    0,                       !- Fan Pressure Rise {Pa}
    1,                       !- Fan Total Efficiency
    0.606,                   !- Constant Term Coefficient
    0.036,                   !- Temperature Term Coefficient
    0.1177,                  !- Velocity Term Coefficient
    0,                       !- Velocity Squared Term Coefficient
    ,                        !- Minimum Indoor Temperature {C}
    ,                        !- Minimum Indoor Temperature Schedule Name
    ,                        !- Maximum Indoor Temperature {C}
    ,                        !- Maximum Indoor Temperature Schedule Name
    -100,                    !- Delta Temperature {deltaC}
    ,                        !- Delta Temperature Schedule Name
    ,                        !- Minimum Outdoor Temperature {C}
    ,                        !- Minimum Outdoor Temperature Schedule Name
    ,                        !- Maximum Outdoor Temperature {C}
    ,                        !- Maximum Outdoor Temperature Schedule Name
    40;                      !- Maximum Wind Speed {m/s}

ZoneVentilation:DesignFlowRate,
    jichubedroom1.8,         !- Name
    bedroom1.8,              !- Zone or ZoneList Name
    jichutongfengbedroom,    !- Schedule Name
    AirChanges/Hour,         !- Design Flow Rate Calculation Method
    ,                        !- Design Flow Rate {m3/s}
    ,                        !- Flow Rate per Zone Floor Area {m3/s-m2}
    ,                        !- Flow Rate per Person {m3/s-person}
    4,                       !- Air Changes per Hour {1/hr}
    Natural,                 !- Ventilation Type
    0,                       !- Fan Pressure Rise {Pa}
    1,                       !- Fan Total Efficiency
    0.606,                   !- Constant Term Coefficient
    0.036,                   !- Temperature Term Coefficient
    0.1177,                  !- Velocity Term Coefficient
    0,                       !- Velocity Squared Term Coefficient
    ,                        !- Minimum Indoor Temperature {C}
    ,                        !- Minimum Indoor Temperature Schedule Name
    ,                        !- Maximum Indoor Temperature {C}
    ,                        !- Maximum Indoor Temperature Schedule Name
    -100,                    !- Delta Temperature {deltaC}
    ,                        !- Delta Temperature Schedule Name
    ,                        !- Minimum Outdoor Temperature {C}
    ,                        !- Minimum Outdoor Temperature Schedule Name
    ,                        !- Maximum Outdoor Temperature {C}
    ,                        !- Maximum Outdoor Temperature Schedule Name
    40;                      !- Maximum Wind Speed {m/s}

ZoneVentilation:DesignFlowRate,
    jichubedroom1.9,         !- Name
    bedroom1.9,              !- Zone or ZoneList Name
    jichutongfengbedroom,    !- Schedule Name
    AirChanges/Hour,         !- Design Flow Rate Calculation Method
    ,                        !- Design Flow Rate {m3/s}
    ,                        !- Flow Rate per Zone Floor Area {m3/s-m2}
    ,                        !- Flow Rate per Person {m3/s-person}
    4,                       !- Air Changes per Hour {1/hr}
    Natural,                 !- Ventilation Type
    0,                       !- Fan Pressure Rise {Pa}
    1,                       !- Fan Total Efficiency
    0.606,                   !- Constant Term Coefficient
    0.036,                   !- Temperature Term Coefficient
    0.1177,                  !- Velocity Term Coefficient
    0,                       !- Velocity Squared Term Coefficient
    ,                        !- Minimum Indoor Temperature {C}
    ,                        !- Minimum Indoor Temperature Schedule Name
    ,                        !- Maximum Indoor Temperature {C}
    ,                        !- Maximum Indoor Temperature Schedule Name
    -100,                    !- Delta Temperature {deltaC}
    ,                        !- Delta Temperature Schedule Name
    ,                        !- Minimum Outdoor Temperature {C}
    ,                        !- Minimum Outdoor Temperature Schedule Name
    ,                        !- Maximum Outdoor Temperature {C}
    ,                        !- Maximum Outdoor Temperature Schedule Name
    40;                      !- Maximum Wind Speed {m/s}

ZoneVentilation:DesignFlowRate,
    jichubedroom1.10,        !- Name
    bedroom1.10,             !- Zone or ZoneList Name
    jichutongfengbedroom,    !- Schedule Name
    AirChanges/Hour,         !- Design Flow Rate Calculation Method
    ,                        !- Design Flow Rate {m3/s}
    ,                        !- Flow Rate per Zone Floor Area {m3/s-m2}
    ,                        !- Flow Rate per Person {m3/s-person}
    4,                       !- Air Changes per Hour {1/hr}
    Natural,                 !- Ventilation Type
    0,                       !- Fan Pressure Rise {Pa}
    1,                       !- Fan Total Efficiency
    0.606,                   !- Constant Term Coefficient
    0.036,                   !- Temperature Term Coefficient
    0.1177,                  !- Velocity Term Coefficient
    0,                       !- Velocity Squared Term Coefficient
    ,                        !- Minimum Indoor Temperature {C}
    ,                        !- Minimum Indoor Temperature Schedule Name
    ,                        !- Maximum Indoor Temperature {C}
    ,                        !- Maximum Indoor Temperature Schedule Name
    -100,                    !- Delta Temperature {deltaC}
    ,                        !- Delta Temperature Schedule Name