!-Generator IDFEditor 1.49
!-Option SortedOrder

!-NOTE: All comments with '!-' are ignored by the IDFEditor and are generated automatically.
!-      Use '!' comments if they need to be retained when using the IDFEditor.


!-   ===========  ALL OBJECTS IN CLASS: VERSION ===========

Version,
    8.7;                     !- Version Identifier


!-   ===========  ALL OBJECTS IN CLASS: SIMULATIONCONTROL ===========

SimulationControl,
    Yes,                     !- Do Zone Sizing Calculation
    No,                      !- Do System Sizing Calculation
    No,                      !- Do Plant Sizing Calculation
    Yes,                     !- Run Simulation for Sizing Periods
    Yes;                     !- Run Simulation for Weather File Run Periods


!-   ===========  ALL OBJECTS IN CLASS: BUILDING ===========

Building,
    basic model,             !- Name
    246.34676592804237,                       !- North Axis {deg}
    City,                    !- Terrain
    ,                        !- Loads Convergence Tolerance Value
    ,                        !- Temperature Convergence Tolerance Value {deltaC}
    FullInteriorAndExteriorWithReflections,  !- Solar Distribution
    ,                        !- Maximum Number of Warmup Days
    ;                        !- Minimum Number of Warmup Days


!-   ===========  ALL OBJECTS IN CLASS: SHADOWCALCULATION ===========

ShadowCalculation,
    AverageOverDaysInFrequency,  !- Calculation Method
    20,                      !- Calculation Frequency
    15000;                   !- Maximum Figures in Shadow Overlap Calculations


!-   ===========  ALL OBJECTS IN CLASS: SURFACECONVECTIONALGORITHM:INSIDE ===========

SurfaceConvectionAlgorithm:Inside,
    TARP;                    !- Algorithm


!-   ===========  ALL OBJECTS IN CLASS: SURFACECONVECTIONALGORITHM:OUTSIDE ===========

SurfaceConvectionAlgorithm:Outside,
    DOE-2;                   !- Algorithm


!-   ===========  ALL OBJECTS IN CLASS: HEATBALANCEALGORITHM ===========

HeatBalanceAlgorithm,
    ConductionTransferFunction,  !- Algorithm
    200,                     !- Surface Temperature Upper Limit {C}
    0.1,                     !- Minimum Surface Convection Heat Transfer Coefficient Value {W/m2-K}
    1000;                    !- Maximum Surface Convection Heat Transfer Coefficient Value {W/m2-K}


!-   ===========  ALL OBJECTS IN CLASS: TIMESTEP ===========

Timestep,
    6;                       !- Number of Timesteps per Hour


!-   ===========  ALL OBJECTS IN CLASS: RUNPERIOD ===========

RunPeriod,
    Annual,                  !- Name
    1,                       !- Begin Month
    1,                       !- Begin Day of Month
    12,                      !- End Month
    31,                      !- End Day of Month
    UseWeatherFile,          !- Day of Week for Start Day
    No,                      !- Use Weather File Holidays and Special Days
    No,                      !- Use Weather File Daylight Saving Period
    No,                      !- Apply Weekend Holiday Rule
    Yes,                     !- Use Weather File Rain Indicators
    Yes,                     !- Use Weather File Snow Indicators
    1;                       !- Number of Times Runperiod to be Repeated


!-   ===========  ALL OBJECTS IN CLASS: SCHEDULETYPELIMITS ===========

ScheduleTypeLimits,
    Any Number;              !- Name

ScheduleTypeLimits,
    Fraction,                !- Name
    0.0,                     !- Lower Limit Value
    1.0,                     !- Upper Limit Value
    CONTINUOUS;              !- Numeric Type

ScheduleTypeLimits,
    Temperature,             !- Name
    -60,                     !- Lower Limit Value
    200,                     !- Upper Limit Value
    CONTINUOUS;              !- Numeric Type

ScheduleTypeLimits,
    On/Off,                  !- Name
    0,                       !- Lower Limit Value
    1,                       !- Upper Limit Value
    DISCRETE;                !- Numeric Type


!-   ===========  ALL OBJECTS IN CLASS: SCHEDULE:COMPACT ===========

Schedule:Compact,
    Occupancy,               !- Name
    Fraction,                !- Schedule Type Limits Name
    Through: 12/31,          !- Field 1
    For: Weekdays,           !- Field 2
    Until: 08:00,            !- Field 3
    1,                       !- Field 4
    Until: 18:00,            !- Field 5
    0,                       !- Field 6
    Until: 24:00,            !- Field 7
    1,                       !- Field 8
    For: AllOtherDays,       !- Field 9
    Until: 24:00,            !- Field 10
    1;                       !- Field 11

Schedule:Compact,
    Activity people,         !- Name
    Any Number,              !- Schedule Type Limits Name
    Through: 12/31,          !- Field 1
    For: AllDays,            !- Field 2
    Until: 24:00,            !- Field 3
    108;                     !- Field 4

Schedule:Compact,
    HVAV SCH,                !- Name
    Fraction,                !- Schedule Type Limits Name
    Through: 12/31,          !- Field 1
    For: Weekdays,           !- Field 2
    Until: 08:00,            !- Field 3
    1,                       !- Field 4
    Until: 18:00,            !- Field 5
    0,                       !- Field 6
    Until: 24:00,            !- Field 7
    1,                       !- Field 8
    For: AllOtherDays,       !- Field 9
    Until: 24:00,            !- Field 10
    1;                       !- Field 11

Schedule:Compact,
    lighting,                !- Name
    Fraction,                !- Schedule Type Limits Name
    Through: 12/31,          !- Field 1
    For: AllDays,            !- Field 2
    Until: 18:00,            !- Field 3
    0,                       !- Field 4
    Until: 24:00,            !- Field 5
    1;                       !- Field 6

Schedule:Compact,
    Working/Schooling Bedroom occupancy,  !- Name
    Fraction,                !- Schedule Type Limits Name
    Through: 12/31,          !- Field 1
    For: Weekdays,           !- Field 2
    Until: 08:00,            !- Field 3
    1,                       !- Field 4
    Until: 22:00,            !- Field 5
    0,                       !- Field 6
    Until: 24:00,            !- Field 7
    1,                       !- Field 8
    For: AllOtherDays,       !- Field 9
    Until: 08:00,            !- Field 10
    1,                       !- Field 11
    Until: 12:30,            !- Field 12
    0,                       !- Field 13
    Until: 14:00,            !- Field 14
    1,                       !- Field 15
    Until: 22:00,            !- Field 16
    0,                       !- Field 17
    Until: 24:00,            !- Field 18
    1;                       !- Field 19

Schedule:Compact,
    Retired Bedroom occupancy,  !- Name
    Fraction,                !- Schedule Type Limits Name
    Through: 12/31,          !- Field 1
    For: Alldays,            !- Field 2
    Until: 08:00,            !- Field 3
    1,                       !- Field 4
    Until: 12:30,            !- Field 5
    0,                       !- Field 6
    Until: 14:00,            !- Field 7
    1,                       !- Field 8
    Until: 22:00,            !- Field 9
    0,                       !- Field 10
    Until: 24:00,            !- Field 11
    1;                       !- Field 12

Schedule:Compact,
    Retired included fml livingroom occupancy,  !- Name
    Fraction,                !- Schedule Type Limits Name
    Through: 12/31,          !- Field 1
    For: Alldays,            !- Field 2
    Until: 08:00,            !- Field 3
    0,                       !- Field 4
    Until: 12:30,            !- Field 5
    1,                       !- Field 6
    Until: 14:00,            !- Field 7
    0,                       !- Field 8
    Until: 22:00,            !- Field 9
    1,                       !- Field 10
    Until: 24:00,            !- Field 11
    0;                       !- Field 12

Schedule:Compact,
    Retired excluded fml livingroom  occupancy,  !- Name
    Fraction,                !- Schedule Type Limits Name
    Through: 12/31,          !- Field 1
    For: Weekdays,           !- Field 2
    Until: 17:00,            !- Field 3
    0,                       !- Field 4
    Until: 22:00,            !- Field 5
    1,                       !- Field 6
    Until: 24:00,            !- Field 7
    0,                       !- Field 8
    For: AllOtherDays,       !- Field 9
    Until: 08:00,            !- Field 10
    0,                       !- Field 11
    Until: 12:30,            !- Field 12
    1,                       !- Field 13
    Until: 14:00,            !- Field 14
    0,                       !- Field 15
    Until: 22:00,            !- Field 16
    1,                       !- Field 17
    Until: 24:00,            !- Field 18
    0;                       !- Field 19

Schedule:Compact,
    Heating setpoint,        !- Name
    Temperature,             !- Schedule Type Limits Name
    Through: 2/28,           !- Field 1
    For: AllDays,            !- Field 2
    Until: 8:00,             !- Field 3
    18.0,                      !- Field 4
    Until: 24:00,            !- Field 5
    18.0,                      !- Field 6
    Through: 11/30,          !- Field 7
    For: AllDays,            !- Field 8
    Until: 24:00,            !- Field 9
    0,                       !- Field 10
    Through: 12/31,          !- Field 11
    For: AllDays,            !- Field 12
    Until: 8:00,             !- Field 13
    18.0,                      !- Field 14
    Until: 24:00,            !- Field 15
    18.0;                      !- Field 16

Schedule:Compact,
    Cooling setpoint,        !- Name
    Temperature,             !- Schedule Type Limits Name
    Through: 5/31,           !- Field 1
    For: AllDays,            !- Field 2
    Until: 24:00,            !- Field 3
    26.0,                      !- Field 4
    Through: 9/30,           !- Field 5
    For: AllDays,            !- Field 6
    Until: 24:00,            !- Field 7
    26.0,                      !- Field 8
    Through: 12/31,          !- Field 9
    For: AllDays,            !- Field 10
    Until: 24:00,            !- Field 11
    26.0;                      !- Field 12

Schedule:Compact,
    Work Efficiency,         !- Name
    Fraction,                !- Schedule Type Limits Name
    Through: 12/31,          !- Field 1
    For: AllDays,            !- Field 2
    Until: 24:00,            !- Field 3
    0;                       !- Field 4

Schedule:Compact,
    Air Velocity Schedule,   !- Name
    Any Number,              !- Schedule Type Limits Name
    Through: 01/31,          !- Field 1
    For: AllDays,            !- Field 2
    Until: 24:00,            !- Field 3
    .07,                     !- Field 4
    Through: 02/28,          !- Field 5
    For: AllDays,            !- Field 6
    Until: 24:00,            !- Field 7
    .07,                     !- Field 8
    Through: 03/31,          !- Field 9
    For: AllDays,            !- Field 10
    Until: 24:00,            !- Field 11
    .1,                      !- Field 12
    Through: 04/30,          !- Field 13
    For: AllDays,            !- Field 14
    Until: 24:00,            !- Field 15
    .1,                      !- Field 16
    Through: 05/31,          !- Field 17
    For: AllDays,            !- Field 18
    Until: 24:00,            !- Field 19
    .1,                      !- Field 20
    Through: 06/30,          !- Field 21
    For: AllDays,            !- Field 22
    Until: 24:00,            !- Field 23
    .16,                     !- Field 24
    Through: 07/31,          !- Field 25
    For: AllDays,            !- Field 26
    Until: 24:00,            !- Field 27
    .16,                     !- Field 28
    Through: 08/31,          !- Field 29
    For: AllDays,            !- Field 30
    Until: 24:00,            !- Field 31
    .16,                     !- Field 32
    Through: 09/30,          !- Field 33
    For: AllDays,            !- Field 34
    Until: 24:00,            !- Field 35
    .13,                     !- Field 36
    Through: 10/31,          !- Field 37
    For: AllDays,            !- Field 38
    Until: 24:00,            !- Field 39
    .07,                     !- Field 40
    Through: 11/30,          !- Field 41
    For: AllDays,            !- Field 42
    Until: 24:00,            !- Field 43
    .05,                     !- Field 44
    Through: 12/31,          !- Field 45
    For: AllDays,            !- Field 46
    Until: 24:00,            !- Field 47
    .07;                     !- Field 48

Schedule:Compact,
    Clothing Insulation Schedule,  !- Name
    Any Number,              !- Schedule Type Limits Name
    Through: 01/31,          !- Field 1
    For: AllDays,            !- Field 2
    Until: 24:00,            !- Field 3
    1.34,                    !- Field 4
    Through: 02/28,          !- Field 5
    For: AllDays,            !- Field 6
    Until: 24:00,            !- Field 7
    1.18,                    !- Field 8
    Through: 03/31,          !- Field 9
    For: AllDays,            !- Field 10
    Until: 24:00,            !- Field 11
    .83,                     !- Field 12
    Through: 04/30,          !- Field 13
    For: AllDays,            !- Field 14
    Until: 24:00,            !- Field 15
    .59,                     !- Field 16
    Through: 05/31,          !- Field 17
    For: AllDays,            !- Field 18
    Until: 24:00,            !- Field 19
    .41,                     !- Field 20
    Through: 06/30,          !- Field 21
    For: AllDays,            !- Field 22
    Until: 24:00,            !- Field 23
    .33,                     !- Field 24
    Through: 07/31,          !- Field 25
    For: AllDays,            !- Field 26
    Until: 24:00,            !- Field 27
    .31,                     !- Field 28
    Through: 08/31,          !- Field 29
    For: AllDays,            !- Field 30
    Until: 24:00,            !- Field 31
    .31,                     !- Field 32
    Through: 09/30,          !- Field 33
    For: AllDays,            !- Field 34
    Until: 24:00,            !- Field 35
    .44,                     !- Field 36
    Through: 10/31,          !- Field 37
    For: AllDays,            !- Field 38
    Until: 24:00,            !- Field 39
    .51,                     !- Field 40
    Through: 11/30,          !- Field 41
    For: AllDays,            !- Field 42
    Until: 24:00,            !- Field 43
    .76,                     !- Field 44
    Through: 12/31,          !- Field 45
    For: AllDays,            !- Field 46
    Until: 24:00,            !- Field 47
    1.26;                    !- Field 48

Schedule:Compact,
    Bedroom Light,           !- Name
    Fraction,                !- Schedule Type Limits Name
    Through: 12/31,          !- Field 1
    For: AllDays,            !- Field 2
    Until: 22:00,            !- Field 3
    0,                       !- Field 4
    Until: 24:00,            !- Field 5
    1;                       !- Field 6

Schedule:Compact,
    livingroom light,        !- Name
    Fraction,                !- Schedule Type Limits Name
    Through: 12/31,          !- Field 1
    For: AllDays,            !- Field 2
    Until: 17:00,            !- Field 3
    0,                       !- Field 4
    Until: 22:00,            !- Field 5
    1,                       !- Field 6
    Until: 24:00,            !- Field 7
    0;                       !- Field 8

Schedule:Compact,
    seated people,           !- Name
    Any Number,              !- Schedule Type Limits Name
    Through: 12/31,          !- Field 1
    For: AllDays,            !- Field 2
    Until: 24:00,            !- Field 3
    100;                     !- Field 4

Schedule:Compact,
    shading schedule,        !- Name
    Fraction,                !- Schedule Type Limits Name
    Through: 5/31,           !- Field 1
    For: AllDays,            !- Field 2
    Until: 24:00,            !- Field 3
    0,                       !- Field 4
    Through: 9/30,           !- Field 5
    For: AllDays,            !- Field 6
    Until: 24:00,            !- Field 7
    1,                       !- Field 8
    Through: 12/31,          !- Field 9
    For: AllDays,            !- Field 10
    Until: 24:00,            !- Field 11
    0;                       !- Field 12


!-   ===========  ALL OBJECTS IN CLASS: SCHEDULE:CONSTANT ===========

Schedule:Constant,
    On,                      !- Name
    Fraction,                !- Schedule Type Limits Name
    1;                       !- Hourly Value

Schedule:Constant,
    Off,                     !- Name
    Fraction,                !- Schedule Type Limits Name
    0;                       !- Hourly Value

Schedule:Constant,
    PerimHeating_SP_Sch,     !- Name
    Temperature,             !- Schedule Type Limits Name
    18;                      !- Hourly Value

Schedule:Constant,
    PerimCooling_SP_Sch,     !- Name
    Temperature,             !- Schedule Type Limits Name
    26;                      !- Hourly Value

Schedule:Constant,
    PerimZoneControlTypeSched,  !- Name
    Any Number,              !- Schedule Type Limits Name
    4;                       !- Hourly Value

Schedule:Constant,
    CoreHeating_SP_Sch,      !- Name
    Temperature,             !- Schedule Type Limits Name
    18;                      !- Hourly Value

Schedule:Constant,
    CoreCooling_SP_Sch,      !- Name
    Temperature,             !- Schedule Type Limits Name
    26;                      !- Hourly Value

Schedule:Constant,
    CoreZoneControlTypeSched,!- Name
    Any Number,              !- Schedule Type Limits Name
    4;                       !- Hourly Value


!-   ===========  ALL OBJECTS IN CLASS: MATERIAL ===========

Material,
    5shuinishajiang,         !- Name
    Rough,                   !- Roughness
    0.005,                   !- Thickness {m}
    0.93,                    !- Conductivity {W/m-K}
    1800,                    !- Density {kg/m3}
    1050,                    !- Specific Heat {J/kg-K}
    0.9,                     !- Thermal Absorptance
    0.7,                     !- Solar Absorptance
    0.7;                     !- Visible Absorptance

Material,
    10NanRanXinJiSuJuBenBan, !- Name
    Rough,                   !- Roughness
    0.01,                    !- Thickness {m}
    0.03,                    !- Conductivity {W/m-K}
    30,                      !- Density {kg/m3}
    1380,                    !- Specific Heat {J/kg-K}
    0.9,                     !- Thermal Absorptance
    0.7,                     !- Solar Absorptance
    0.7;                     !- Visible Absorptance

Material,
    20shuinishajiang,        !- Name
    Rough,                   !- Roughness
    0.02,                    !- Thickness {m}
    0.93,                    !- Conductivity {W/m-K}
    1800,                    !- Density {kg/m3}
    1050,                    !- Specific Heat {J/kg-K}
    0.9,                     !- Thermal Absorptance
    0.7,                     !- Solar Absorptance
    0.7;                     !- Visible Absorptance

Material,
    20NanRanXinJiSuJuBenBan, !- Name
    Rough,                   !- Roughness
    0.02,                    !- Thickness {m}
    0.03,                    !- Conductivity {W/m-K}
    30,                      !- Density {kg/m3}
    1380,                    !- Specific Heat {J/kg-K}
    0.9,                     !- Thermal Absorptance
    0.7,                     !- Solar Absorptance
    0.7;                     !- Visible Absorptance

Material,
    30NanRanXinJiSuJuBenBan, !- Name
    Rough,                   !- Roughness
    0.03,                    !- Thickness {m}
    0.03,                    !- Conductivity {W/m-K}
    30,                      !- Density {kg/m3}
    1380,                    !- Specific Heat {J/kg-K}
    0.9,                     !- Thermal Absorptance
    0.7,                     !- Solar Absorptance
    0.7;                     !- Visible Absorptance

Material,
    40NanRanXinJiSuJuBenBan, !- Name
    Rough,                   !- Roughness
    0.04,                    !- Thickness {m}
    0.03,                    !- Conductivity {W/m-K}
    30,                      !- Density {kg/m3}
    1380,                    !- Specific Heat {J/kg-K}
    0.9,                     !- Thermal Absorptance
    0.7,                     !- Solar Absorptance
    0.7;                     !- Visible Absorptance

Material,
    50NanRanXinJiSuJuBenBan, !- Name
    Rough,                   !- Roughness
    0.05,                    !- Thickness {m}
    0.03,                    !- Conductivity {W/m-K}
    30,                      !- Density {kg/m3}
    1380,                    !- Specific Heat {J/kg-K}
    0.9,                     !- Thermal Absorptance
    0.7,                     !- Solar Absorptance
    0.7;                     !- Visible Absorptance

Material,
    60NanRanXinJiSuJuBenBan, !- Name
    Rough,                   !- Roughness
    0.06,                    !- Thickness {m}
    0.03,                    !- Conductivity {W/m-K}
    30,                      !- Density {kg/m3}
    1380,                    !- Specific Heat {J/kg-K}
    0.9,                     !- Thermal Absorptance
    0.7,                     !- Solar Absorptance
    0.7;                     !- Visible Absorptance

Material,
    70NanRanXinJiSuJuBenBan, !- Name
    Rough,                   !- Roughness
    0.07,                    !- Thickness {m}
    0.03,                    !- Conductivity {W/m-K}
    30,                      !- Density {kg/m3}
    1380,                    !- Specific Heat {J/kg-K}
    0.9,                     !- Thermal Absorptance
    0.7,                     !- Solar Absorptance
    0.7;                     !- Visible Absorptance

Material,
    80NanRanXinJiSuJuBenBan, !- Name
    Rough,                   !- Roughness
    0.08,                    !- Thickness {m}
    0.03,                    !- Conductivity {W/m-K}
    30,                      !- Density {kg/m3}
    1380,                    !- Specific Heat {J/kg-K}
    0.9,                     !- Thermal Absorptance
    0.7,                     !- Solar Absorptance
    0.7;                     !- Visible Absorptance

Material,
    90NanRanXinJiSuJuBenBan, !- Name
    Rough,                   !- Roughness
    0.09,                    !- Thickness {m}
    0.03,                    !- Conductivity {W/m-K}
    30,                      !- Density {kg/m3}
    1380,                    !- Specific Heat {J/kg-K}
    0.9,                     !- Thermal Absorptance
    0.7,                     !- Solar Absorptance
    0.7;                     !- Visible Absorptance

Material,
    100NanRanXinJiSuJuBenBan,!- Name
    Rough,                   !- Roughness
    0.1,                     !- Thickness {m}
    0.03,                    !- Conductivity {W/m-K}
    30,                      !- Density {kg/m3}
    1380,                    !- Specific Heat {J/kg-K}
    0.9,                     !- Thermal Absorptance
    0.7,                     !- Solar Absorptance
    0.7;                     !- Visible Absorptance

Material,
    ShaoJieYeYan,            !- Name
    Rough,                   !- Roughness
    0.2,                     !- Thickness {m}
    0.58,                    !- Conductivity {W/m-K}
    1400,                    !- Density {kg/m3}
    1050,                    !- Specific Heat {J/kg-K}
    0.9,                     !- Thermal Absorptance
    0.7,                     !- Solar Absorptance
    0.7;                     !- Visible Absorptance

Material,
    60hunningtulouban,       !- Name
    Rough,                   !- Roughness
    0.06,                    !- Thickness {m}
    1.74,                    !- Conductivity {W/m-K}
    2500,                    !- Density {kg/m3}
    920,                     !- Specific Heat {J/kg-K}
    0.9,                     !- Thermal Absorptance
    0.7,                     !- Solar Absorptance
    0.7;                     !- Visible Absorptance

Material,
    10baowenshajiang,        !- Name
    Smooth,                  !- Roughness
    0.01,                    !- Thickness {m}
    0.29,                    !- Conductivity {W/m-K}
    800,                     !- Density {kg/m3}
    1050,                    !- Specific Heat {J/kg-K}
    0.9,                     !- Thermal Absorptance
    0.7,                     !- Solar Absorptance
    0.7;                     !- Visible Absorptance

Material,
    45 xishihunningtu,       !- Name
    Rough,                   !- Roughness
    0.045,                   !- Thickness {m}
    1.51,                    !- Conductivity {W/m-K}
    2300,                    !- Density {kg/m3}
    920,                     !- Specific Heat {J/kg-K}
    0.9,                     !- Thermal Absorptance
    0.7,                     !- Solar Absorptance
    0.7;                     !- Visible Absorptance

Material,
    85 XPS,                  !- Name
    Smooth,                  !- Roughness
    0.085,                   !- Thickness {m}
    0.3,                     !- Conductivity {W/m-K}
    28.5,                    !- Density {kg/m3}
    1647,                    !- Specific Heat {J/kg-K}
    0.9,                     !- Thermal Absorptance
    0.7,                     !- Solar Absorptance
    0.7;                     !- Visible Absorptance

Material,
    15mudiban,               !- Name
    VerySmooth,              !- Roughness
    0.015,                   !- Thickness {m}
    0.18,                    !- Conductivity {W/m-K}
    700,                     !- Density {kg/m3}
    2510,                    !- Specific Heat {J/kg-K}
    0.9,                     !- Thermal Absorptance
    0.7,                     !- Solar Absorptance
    0.7;                     !- Visible Absorptance

Material,
    5jinshuban,              !- Name
    VerySmooth,              !- Roughness
    0.005,                   !- Thickness {m}
    58.2,                    !- Conductivity {W/m-K}
    7850,                    !- Density {kg/m3}
    480,                     !- Specific Heat {J/kg-K}
    0.9,                     !- Thermal Absorptance
    0.7,                     !- Solar Absorptance
    0.7;                     !- Visible Absorptance

Material,
    35bolimianban,           !- Name
    Smooth,                  !- Roughness
    0.035,                   !- Thickness {m}
    0.035,                   !- Conductivity {W/m-K}
    80,                      !- Density {kg/m3}
    1220,                    !- Specific Heat {J/kg-K}
    0.9,                     !- Thermal Absorptance
    0.7,                     !- Solar Absorptance
    0.7;                     !- Visible Absorptance

Material,
    20SuiShiLuanShi,         !- Name
    MediumRough,             !- Roughness
    0.02,                    !- Thickness {m}
    1.4,                     !- Conductivity {W/m-K}
    2200,                    !- Density {kg/m3}
    920,                     !- Specific Heat {J/kg-K}
    0.9,                     !- Thermal Absorptance
    0.7,                     !- Solar Absorptance
    0.7;                     !- Visible Absorptance

Material,
    35NanRanXinJiSuJuBenBan, !- Name
    Rough,                   !- Roughness
    0.035,                   !- Thickness {m}
    0.03,                    !- Conductivity {W/m-K}
    30,                      !- Density {kg/m3}
    1380,                    !- Specific Heat {J/kg-K}
    0.9,                     !- Thermal Absorptance
    0.7,                     !- Solar Absorptance
    0.7;                     !- Visible Absorptance

Material,
    5SBS,                    !- Name
    MediumRough,             !- Roughness
    0.005,                   !- Thickness {m}
    0.23,                    !- Conductivity {W/m-K}
    900,                     !- Density {kg/m3}
    1620,                    !- Specific Heat {J/kg-K}
    0.9,                     !- Thermal Absorptance
    0.7,                     !- Solar Absorptance
    0.7;                     !- Visible Absorptance

Material,
    30shaojietaoli,          !- Name
    MediumRough,             !- Roughness
    0.03,                    !- Thickness {m}
    0.28,                    !- Conductivity {W/m-K}
    950,                     !- Density {kg/m3}
    1050,                    !- Specific Heat {J/kg-K}
    0.9,                     !- Thermal Absorptance
    0.7,                     !- Solar Absorptance
    0.7;                     !- Visible Absorptance

Material,
    120gangjinhunningtu,     !- Name
    MediumRough,             !- Roughness
    0.12,                    !- Thickness {m}
    1.74,                    !- Conductivity {W/m-K}
    2500,                    !- Density {kg/m3}
    920,                     !- Specific Heat {J/kg-K}
    0.9,                     !- Thermal Absorptance
    0.7,                     !- Solar Absorptance
    0.7;                     !- Visible Absorptance

Material,
    15NanRanXinJiSuJuBenBan, !- Name
    Rough,                   !- Roughness
    0.015,                   !- Thickness {m}
    0.03,                    !- Conductivity {W/m-K}
    30,                      !- Density {kg/m3}
    1380,                    !- Specific Heat {J/kg-K}
    0.9,                     !- Thermal Absorptance
    0.7,                     !- Solar Absorptance
    0.7;                     !- Visible Absorptance


!-   ===========  ALL OBJECTS IN CLASS: MATERIAL:NOMASS ===========

Material:NoMass,
    Exterior Wall,           !- Name
    Rough,                   !- Roughness
    1,                       !- Thermal Resistance {m2-K/W}
    0.9,                     !- Thermal Absorptance
    0.7,                     !- Solar Absorptance
    0.7;                     !- Visible Absorptance

Material:NoMass,
    Exterior Roof,           !- Name
    Rough,                   !- Roughness
    1.43,                    !- Thermal Resistance {m2-K/W}
    0.9,                     !- Thermal Absorptance
    0.7,                     !- Solar Absorptance
    0.7;                     !- Visible Absorptance

Material:NoMass,