!-Generator IDFEditor 1.49
!-Option SortedOrder

!-NOTE: All comments with '!-' are ignored by the IDFEditor and are generated automatically.
!-      Use '!' comments if they need to be retained when using the IDFEditor.


!-   ===========  ALL OBJECTS IN CLASS: VERSION ===========

Version,
    8.7;                     !- Version Identifier


!-   ===========  ALL OBJECTS IN CLASS: SIMULATIONCONTROL ===========

SimulationControl,
    Yes,                     !- Do Zone Sizing Calculation
    No,                      !- Do System Sizing Calculation
    No,                      !- Do Plant Sizing Calculation
    Yes,                     !- Run Simulation for Sizing Periods
    Yes;                     !- Run Simulation for Weather File Run Periods


!-   ===========  ALL OBJECTS IN CLASS: BUILDING ===========

Building,
    Three office building,   !- Name
    288.3049326169313,                       !- North Axis {deg}
    City,                    !- Terrain
    0.04,                    !- Loads Convergence Tolerance Value
    0.4,                     !- Temperature Convergence Tolerance Value {deltaC}
    FullInteriorAndExteriorWithReflections,  !- Solar Distribution
    ,                        !- Maximum Number of Warmup Days
    ;                        !- Minimum Number of Warmup Days


!-   ===========  ALL OBJECTS IN CLASS: SHADOWCALCULATION ===========

ShadowCalculation,
    AverageOverDaysInFrequency,  !- Calculation Method
    20,                      !- Calculation Frequency
    15000;                   !- Maximum Figures in Shadow Overlap Calculations


!-   ===========  ALL OBJECTS IN CLASS: SURFACECONVECTIONALGORITHM:INSIDE ===========

SurfaceConvectionAlgorithm:Inside,
    TARP;                    !- Algorithm


!-   ===========  ALL OBJECTS IN CLASS: SURFACECONVECTIONALGORITHM:OUTSIDE ===========

SurfaceConvectionAlgorithm:Outside,
    DOE-2;                   !- Algorithm


!-   ===========  ALL OBJECTS IN CLASS: HEATBALANCEALGORITHM ===========

HeatBalanceAlgorithm,
    ConductionTransferFunction,  !- Algorithm
    200,                     !- Surface Temperature Upper Limit {C}
    0.1,                     !- Minimum Surface Convection Heat Transfer Coefficient Value {W/m2-K}
    1000;                    !- Maximum Surface Convection Heat Transfer Coefficient Value {W/m2-K}


!-   ===========  ALL OBJECTS IN CLASS: TIMESTEP ===========

Timestep,
    6;                       !- Number of Timesteps per Hour


!-   ===========  ALL OBJECTS IN CLASS: SIZINGPERIOD:DESIGNDAY ===========

SizingPeriod:DesignDay,
    Ann Htg 99.6% Condns DB, !- Name
    1,                       !- Month
    21,                      !- Day of Month
    WinterDesignDay,         !- Day Type
    -2.2,                    !- Maximum Dry-Bulb Temperature {C}
    5,                       !- Daily Dry-Bulb Temperature Range {deltaC}
    DefaultMultipliers,      !- Dry-Bulb Temperature Range Modifier Type
    ,                        !- Dry-Bulb Temperature Range Modifier Day Schedule Name
    WetBulb,                 !- Humidity Condition Type
    -2.2,                    !- Wetbulb or DewPoint at Maximum Dry-Bulb {C}
    ,                        !- Humidity Condition Day Schedule Name
    ,                        !- Humidity Ratio at Maximum Dry-Bulb {kgWater/kgDryAir}
    ,                        !- Enthalpy at Maximum Dry-Bulb {J/kg}
    ,                        !- Daily Wet-Bulb Temperature Range {deltaC}
    101048,                  !- Barometric Pressure {Pa}
    1.6,                     !- Wind Speed {m/s}
    20,                      !- Wind Direction {deg}
    No,                      !- Rain Indicator
    No,                      !- Snow Indicator
    No,                      !- Daylight Saving Time Indicator
    ASHRAEClearSky,          !- Solar Model Indicator
    ,                        !- Beam Solar Day Schedule Name
    ,                        !- Diffuse Solar Day Schedule Name
    ,                        !- ASHRAE Clear Sky Optical Depth for Beam Irradiance (taub) {dimensionless}
    ,                        !- ASHRAE Clear Sky Optical Depth for Diffuse Irradiance (taud) {dimensionless}
    0;                       !- Sky Clearness

SizingPeriod:DesignDay,
    Ann Clg 4% Condns DB =>MWB,  !- Name
    7,                       !- Month
    21,                      !- Day of Month
    SummerDesignDay,         !- Day Type
    35.7,                    !- Maximum Dry-Bulb Temperature {C}
    6.3,                     !- Daily Dry-Bulb Temperature Range {deltaC}
    DefaultMultipliers,      !- Dry-Bulb Temperature Range Modifier Type
    ,                        !- Dry-Bulb Temperature Range Modifier Day Schedule Name
    WetBulb,                 !- Humidity Condition Type
    27.6,                    !- Wetbulb or DewPoint at Maximum Dry-Bulb {C}
    ,                        !- Humidity Condition Day Schedule Name
    ,                        !- Humidity Ratio at Maximum Dry-Bulb {kgWater/kgDryAir}
    ,                        !- Enthalpy at Maximum Dry-Bulb {J/kg}
    ,                        !- Daily Wet-Bulb Temperature Range {deltaC}
    101048,                  !- Barometric Pressure {Pa}
    3.3,                     !- Wind Speed {m/s}
    220,                     !- Wind Direction {deg}
    No,                      !- Rain Indicator
    No,                      !- Snow Indicator
    No,                      !- Daylight Saving Time Indicator
    ASHRAEClearSky,          !- Solar Model Indicator
    ,                        !- Beam Solar Day Schedule Name
    ,                        !- Diffuse Solar Day Schedule Name
    0.777,                   !- ASHRAE Clear Sky Optical Depth for Beam Irradiance (taub) {dimensionless}
    1.424,                   !- ASHRAE Clear Sky Optical Depth for Diffuse Irradiance (taud) {dimensionless}
    0;                       !- Sky Clearness


!-   ===========  ALL OBJECTS IN CLASS: RUNPERIOD ===========

RunPeriod,
    Run Period 1,            !- Name
    1,                       !- Begin Month
    1,                       !- Begin Day of Month
    12,                      !- End Month
    31,                      !- End Day of Month
    UseWeatherFile,          !- Day of Week for Start Day
    No,                      !- Use Weather File Holidays and Special Days
    No,                      !- Use Weather File Daylight Saving Period
    No,                      !- Apply Weekend Holiday Rule
    Yes,                     !- Use Weather File Rain Indicators
    Yes,                     !- Use Weather File Snow Indicators
    1;                       !- Number of Times Runperiod to be Repeated


!-   ===========  ALL OBJECTS IN CLASS: RUNPERIODCONTROL:SPECIALDAYS ===========

RunPeriodControl:SpecialDays,
    New Year`s Day,          !- Name
    1/1,                     !- Start Date
    3,                       !- Duration {days}
    Holiday;                 !- Special Day Type

RunPeriodControl:SpecialDays,
    International Labor Day, !- Name
    5/1,                     !- Start Date
    3,                       !- Duration {days}
    Holiday;                 !- Special Day Type

RunPeriodControl:SpecialDays,
    Mid-Autum Festival,      !- Name
    9/20,                    !- Start Date
    3,                       !- Duration {days}
    Holiday;                 !- Special Day Type

RunPeriodControl:SpecialDays,
    National`s Day,          !- Name
    10/1,                    !- Start Date
    5,                       !- Duration {days}
    Holiday;                 !- Special Day Type

RunPeriodControl:SpecialDays,
    Qingming,                !- Name
    4/4,                     !- Start Date
    1,                       !- Duration {days}
    Holiday;                 !- Special Day Type

RunPeriodControl:SpecialDays,
    Duanwu,                  !- Name
    6/7,                     !- Start Date
    3,                       !- Duration {days}
    Holiday;                 !- Special Day Type

RunPeriodControl:SpecialDays,
    Chuxi,                   !- Name
    2/4,                     !- Start Date
    7,                       !- Duration {days}
    Holiday;                 !- Special Day Type
! 
! 
!-   ===========  ALL OBJECTS IN CLASS: SITE:GROUNDTEMPERATURE:BUILDINGSURFACE ===========
! 
! Site:GroundTemperature:BuildingSurface,
!     18,                      !- January Ground Temperature {C}
!     18,                      !- February Ground Temperature {C}
!     18,                      !- March Ground Temperature {C}
!     18,                      !- April Ground Temperature {C}
!     18,                      !- May Ground Temperature {C}
!     18,                      !- June Ground Temperature {C}
!     18,                      !- July Ground Temperature {C}
!     18,                      !- August Ground Temperature {C}
!     18,                      !- September Ground Temperature {C}
!     18,                      !- October Ground Temperature {C}
!     18,                      !- November Ground Temperature {C}
!     18;                      !- December Ground Temperature {C}


!-   ===========  ALL OBJECTS IN CLASS: SCHEDULETYPELIMITS ===========

ScheduleTypeLimits,
    Any Number;              !- Name

ScheduleTypeLimits,
    Fraction,                !- Name
    0.0,                     !- Lower Limit Value
    1.0,                     !- Upper Limit Value
    CONTINUOUS;              !- Numeric Type

ScheduleTypeLimits,
    Temperature,             !- Name
    -60,                     !- Lower Limit Value
    200,                     !- Upper Limit Value
    CONTINUOUS;              !- Numeric Type

ScheduleTypeLimits,
    On/Off,                  !- Name
    0,                       !- Lower Limit Value
    1,                       !- Upper Limit Value
    DISCRETE;                !- Numeric Type


!-   ===========  ALL OBJECTS IN CLASS: SCHEDULE:COMPACT ===========

Schedule:Compact,
    Ocupacy,                 !- Name
    Fraction,                !- Schedule Type Limits Name
    Through:12/31,           !- Field 1
    For: Saturday Sunday Holiday,  !- Field 2
    Until:24:00,             !- Field 3
    0,                       !- Field 4
    For: AllOtherDays,       !- Field 5
    Until: 7:00,             !- Field 6
    0,                       !- Field 7
    Until: 8:00,             !- Field 8
    .1,                      !- Field 9
    Until: 9:00,             !- Field 10
    .5,                      !- Field 11
    Until: 12:00,            !- Field 12
    .95,                     !- Field 13
    Until: 14:00,            !- Field 14
    .8,                      !- Field 15
    Until:18:00,             !- Field 16
    .95,                     !- Field 17
    Until: 20:00,            !- Field 18
    .3,                      !- Field 19
    Until:24:00,             !- Field 20
    0;                       !- Field 21

Schedule:Compact,
    Lighting,                !- Name
    Fraction,                !- Schedule Type Limits Name
    Through:12/31,           !- Field 1
    For: Saturday Sunday Holiday,  !- Field 2
    Until:24:00,             !- Field 3
    0,                       !- Field 4
    For: AllOtherDays,       !- Field 5
    Until: 7:00,             !- Field 6
    0,                       !- Field 7
    Until: 8:00,             !- Field 8
    .1,                      !- Field 9
    Until: 9:00,             !- Field 10
    .5,                      !- Field 11
    Until: 12:00,            !- Field 12
    .95,                     !- Field 13
    Until: 14:00,            !- Field 14
    .8,                      !- Field 15
    Until:18:00,             !- Field 16
    .95,                     !- Field 17
    Until: 20:00,            !- Field 18
    .3,                      !- Field 19
    Until:24:00,             !- Field 20
    0;                       !- Field 21

Schedule:Compact,
    Equipment,               !- Name
    Fraction,                !- Schedule Type Limits Name
    Through:12/31,           !- Field 1
    For: Saturday Sunday Holiday,  !- Field 2
    Until:24:00,             !- Field 3
    0,                       !- Field 4
    For: AllOtherDays,       !- Field 5
    Until: 7:00,             !- Field 6
    0,                       !- Field 7
    Until: 8:00,             !- Field 8
    .1,                      !- Field 9
    Until: 9:00,             !- Field 10
    .5,                      !- Field 11
    Until: 12:00,            !- Field 12
    .95,                     !- Field 13
    Until: 14:00,            !- Field 14
    .8,                      !- Field 15
    Until:18:00,             !- Field 16
    .95,                     !- Field 17
    Until: 20:00,            !- Field 18
    .3,                      !- Field 19
    Until:24:00,             !- Field 20
    0;                       !- Field 21

Schedule:Compact,
    ActSchd,                 !- Name
    Any Number,              !- Schedule Type Limits Name
    Through: 12/31,          !- Field 1
    For: AllDays,            !- Field 2
    Until: 8:00,             !- Field 3
    100,                     !- Field 4
    Until:18:00,             !- Field 5
    120,                     !- Field 6
    Until:24:00,             !- Field 7
    100;                     !- Field 8

Schedule:Compact,
    HVAC sys,                !- Name
    On/Off,                  !- Schedule Type Limits Name
    Through:12/31,           !- Field 1
    For: Saturday Sunday Holiday,  !- Field 2
    Until: 24:00,            !- Field 3
    0,                       !- Field 4
    For: AllOtherDays,       !- Field 5
    Until: 7:00,             !- Field 6
    0,                       !- Field 7
    Until: 18:00,            !- Field 8
    1,                       !- Field 9
    Until: 24:00,            !- Field 10
    0;                       !- Field 11

Schedule:Compact,
    OA,                      !- Name
    On/Off,                  !- Schedule Type Limits Name
    Through:12/31,           !- Field 1
    For: Saturday Sunday Holiday,  !- Field 2
    Until: 24:00,            !- Field 3
    0,                       !- Field 4
    For: AllOtherDays,       !- Field 5
    Until: 7:00,             !- Field 6
    0,                       !- Field 7
    Until: 20:00,            !- Field 8
    1,                       !- Field 9
    Until: 24:00,            !- Field 10
    0;                       !- Field 11

Schedule:Compact,
    Clothing,                !- Name
    Any Number,              !- Schedule Type Limits Name
    Through:3/1,             !- Field 1
    For:AllDays,             !- Field 2
    Until: 24:00,            !- Field 3
    1,                       !- Field 4
    Through: 6/1,            !- Field 5
    For: AllDays,            !- Field 6
    Until: 24:00,            !- Field 7
    .75,                     !- Field 8
    Through: 10/1,           !- Field 9
    For: AllDays,            !- Field 10
    Until: 24:00,            !- Field 11
    .75,                     !- Field 12
    Through: 12/31,          !- Field 13
    For: AllDays,            !- Field 14
    Until: 24:00,            !- Field 15
    1;                       !- Field 16

Schedule:Compact,
    shading schedule,        !- Name
    Fraction,                !- Schedule Type Limits Name
    Through: 5/31,           !- Field 1
    For: AllDays,            !- Field 2
    Until: 24:00,            !- Field 3
    0,                       !- Field 4
    Through: 9/30,           !- Field 5
    For: AllDays,            !- Field 6
    Until: 24:00,            !- Field 7
    1,                       !- Field 8
    Through: 12/31,          !- Field 9
    For: AllDays,            !- Field 10
    Until: 24:00,            !- Field 11
    0;                       !- Field 12

Schedule:Compact,
    Air Velocity Schedule,   !- Name
    Any Number,              !- Schedule Type Limits Name
    Through: 01/31,          !- Field 1
    For: AllDays,            !- Field 2
    Until: 24:00,            !- Field 3
    .07,                     !- Field 4
    Through: 02/28,          !- Field 5
    For: AllDays,            !- Field 6
    Until: 24:00,            !- Field 7
    .07,                     !- Field 8
    Through: 03/31,          !- Field 9
    For: AllDays,            !- Field 10
    Until: 24:00,            !- Field 11
    .1,                      !- Field 12
    Through: 04/30,          !- Field 13
    For: AllDays,            !- Field 14
    Until: 24:00,            !- Field 15
    .1,                      !- Field 16
    Through: 05/31,          !- Field 17
    For: AllDays,            !- Field 18
    Until: 24:00,            !- Field 19
    .1,                      !- Field 20
    Through: 06/30,          !- Field 21
    For: AllDays,            !- Field 22
    Until: 24:00,            !- Field 23
    .16,                     !- Field 24
    Through: 07/31,          !- Field 25
    For: AllDays,            !- Field 26
    Until: 24:00,            !- Field 27
    .16,                     !- Field 28
    Through: 08/31,          !- Field 29
    For: AllDays,            !- Field 30
    Until: 24:00,            !- Field 31
    .16,                     !- Field 32
    Through: 09/30,          !- Field 33
    For: AllDays,            !- Field 34
    Until: 24:00,            !- Field 35
    .13,                     !- Field 36
    Through: 10/31,          !- Field 37
    For: AllDays,            !- Field 38
    Until: 24:00,            !- Field 39
    .07,                     !- Field 40
    Through: 11/30,          !- Field 41
    For: AllDays,            !- Field 42
    Until: 24:00,            !- Field 43
    .05,                     !- Field 44
    Through: 12/31,          !- Field 45
    For: AllDays,            !- Field 46
    Until: 24:00,            !- Field 47
    .07;                     !- Field 48

Schedule:Compact,
    ActSchdF,                !- Name
    Fraction,                !- Schedule Type Limits Name
    Through: 12/31,          !- Field 1
    For: AllDays,            !- Field 2
    Until: 8:00,             !- Field 3
    .8,                      !- Field 4
    Until:18:00,             !- Field 5
    1,                       !- Field 6
    Until:24:00,             !- Field 7
    .8;                      !- Field 8


!-   ===========  ALL OBJECTS IN CLASS: SCHEDULE:CONSTANT ===========

Schedule:Constant,
    On,                      !- Name
    Fraction,                !- Schedule Type Limits Name
    1;                       !- Hourly Value

Schedule:Constant,
    Off,                     !- Name
    Fraction,                !- Schedule Type Limits Name
    0;                       !- Hourly Value

Schedule:Constant,
    PerimHeating_SP_Sch,     !- Name
    Temperature,             !- Schedule Type Limits Name
    18;                      !- Hourly Value

Schedule:Constant,
    PerimCooling_SP_Sch,     !- Name
    Temperature,             !- Schedule Type Limits Name
    26;                      !- Hourly Value

Schedule:Constant,
    PerimZoneControlTypeSched,  !- Name
    Any Number,              !- Schedule Type Limits Name
    4;                       !- Hourly Value

Schedule:Constant,
    CoreHeating_SP_Sch,      !- Name
    Temperature,             !- Schedule Type Limits Name
    18;                      !- Hourly Value

Schedule:Constant,
    CoreCooling_SP_Sch,      !- Name
    Temperature,             !- Schedule Type Limits Name
    26;                      !- Hourly Value

Schedule:Constant,
    CoreZoneControlTypeSched,!- Name
    Any Number,              !- Schedule Type Limits Name
    4;                       !- Hourly Value


!-   ===========  ALL OBJECTS IN CLASS: MATERIAL ===========

Material,
    5shuinishajiang,         !- Name
    Rough,                   !- Roughness
    0.005,                   !- Thickness {m}
    0.93,                    !- Conductivity {W/m-K}
    1800,                    !- Density {kg/m3}
    1050,                    !- Specific Heat {J/kg-K}
    0.9,                     !- Thermal Absorptance
    0.7,                     !- Solar Absorptance
    0.7;                     !- Visible Absorptance

Material,
    10NanRanXinJiSuJuBenBan, !- Name
    Rough,                   !- Roughness
    0.01,                    !- Thickness {m}
    0.03,                    !- Conductivity {W/m-K}
    30,                      !- Density {kg/m3}
    1380,                    !- Specific Heat {J/kg-K}
    0.9,                     !- Thermal Absorptance
    0.7,                     !- Solar Absorptance
    0.7;                     !- Visible Absorptance

Material,
    20shuinishajiang,        !- Name
    Rough,                   !- Roughness
    0.02,                    !- Thickness {m}
    0.93,                    !- Conductivity {W/m-K}
    1800,                    !- Density {kg/m3}
    1050,                    !- Specific Heat {J/kg-K}
    0.9,                     !- Thermal Absorptance
    0.7,                     !- Solar Absorptance
    0.7;                     !- Visible Absorptance

Material,
    20NanRanXinJiSuJuBenBan, !- Name
    Rough,                   !- Roughness
    0.02,                    !- Thickness {m}
    0.03,                    !- Conductivity {W/m-K}
    30,                      !- Density {kg/m3}
    1380,                    !- Specific Heat {J/kg-K}
    0.9,                     !- Thermal Absorptance
    0.7,                     !- Solar Absorptance
    0.7;                     !- Visible Absorptance

Material,
    30NanRanXinJiSuJuBenBan, !- Name
    Rough,                   !- Roughness
    0.03,                    !- Thickness {m}
    0.03,                    !- Conductivity {W/m-K}
    30,                      !- Density {kg/m3}
    1380,                    !- Specific Heat {J/kg-K}
    0.9,                     !- Thermal Absorptance
    0.7,                     !- Solar Absorptance
    0.7;                     !- Visible Absorptance

Material,
    40NanRanXinJiSuJuBenBan, !- Name
    Rough,                   !- Roughness
    0.04,                    !- Thickness {m}
    0.03,                    !- Conductivity {W/m-K}
    30,                      !- Density {kg/m3}
    1380,                    !- Specific Heat {J/kg-K}
    0.9,                     !- Thermal Absorptance
    0.7,                     !- Solar Absorptance
    0.7;                     !- Visible Absorptance

Material,
    50NanRanXinJiSuJuBenBan, !- Name
    Rough,                   !- Roughness
    0.05,                    !- Thickness {m}
    0.03,                    !- Conductivity {W/m-K}
    30,                      !- Density {kg/m3}
    1380,                    !- Specific Heat {J/kg-K}
    0.9,                     !- Thermal Absorptance
    0.7,                     !- Solar Absorptance
    0.7;                     !- Visible Absorptance

Material,
    60NanRanXinJiSuJuBenBan, !- Name
    Rough,                   !- Roughness
    0.06,                    !- Thickness {m}
    0.03,                    !- Conductivity {W/m-K}
    30,                      !- Density {kg/m3}
    1380,                    !- Specific Heat {J/kg-K}
    0.9,                     !- Thermal Absorptance
    0.7,                     !- Solar Absorptance
    0.7;                     !- Visible Absorptance

Material,
    70NanRanXinJiSuJuBenBan, !- Name
    Rough,                   !- Roughness
    0.07,                    !- Thickness {m}
    0.03,                    !- Conductivity {W/m-K}
    30,                      !- Density {kg/m3}
    1380,                    !- Specific Heat {J/kg-K}
    0.9,                     !- Thermal Absorptance
    0.7,                     !- Solar Absorptance
    0.7;                     !- Visible Absorptance

Material,
    80NanRanXinJiSuJuBenBan, !- Name
    Rough,                   !- Roughness
    0.08,                    !- Thickness {m}
    0.03,                    !- Conductivity {W/m-K}
    30,                      !- Density {kg/m3}
    1380,                    !- Specific Heat {J/kg-K}
    0.9,                     !- Thermal Absorptance
    0.7,                     !- Solar Absorptance
    0.7;                     !- Visible Absorptance

Material,
    90NanRanXinJiSuJuBenBan, !- Name
    Rough,                   !- Roughness
    0.09,                    !- Thickness {m}
    0.03,                    !- Conductivity {W/m-K}
    30,                      !- Density {kg/m3}
    1380,                    !- Specific Heat {J/kg-K}
    0.9,                     !- Thermal Absorptance
    0.7,                     !- Solar Absorptance
    0.7;                     !- Visible Absorptance

Material,
    100NanRanXinJiSuJuBenBan,!- Name
    Rough,                   !- Roughness
    0.1,                     !- Thickness {m}
    0.03,                    !- Conductivity {W/m-K}
    30,                      !- Density {kg/m3}
    1380,                    !- Specific Heat {J/kg-K}
    0.9,                     !- Thermal Absorptance
    0.7,                     !- Solar Absorptance
    0.7;                     !- Visible Absorptance

Material,
    ShaoJieYeYan,            !- Name
    Rough,                   !- Roughness
    0.2,                     !- Thickness {m}
    0.58,                    !- Conductivity {W/m-K}
    1400,                    !- Density {kg/m3}
    1050,                    !- Specific Heat {J/kg-K}
    0.9,                     !- Thermal Absorptance
    0.7,                     !- Solar Absorptance
    0.7;                     !- Visible Absorptance

Material,
    60hunningtulouban,       !- Name
    Rough,                   !- Roughness
    0.06,                    !- Thickness {m}
    1.74,                    !- Conductivity {W/m-K}
    2500,                    !- Density {kg/m3}
    920,                     !- Specific Heat {J/kg-K}
    0.9,                     !- Thermal Absorptance
    0.7,                     !- Solar Absorptance
    0.7;                     !- Visible Absorptance

Material,
    10baowenshajiang,        !- Name
    Smooth,                  !- Roughness
    0.01,                    !- Thickness {m}
    0.29,                    !- Conductivity {W/m-K}
    800,                     !- Density {kg/m3}
    1050,                    !- Specific Heat {J/kg-K}
    0.9,                     !- Thermal Absorptance
    0.7,                     !- Solar Absorptance
    0.7;                     !- Visible Absorptance

Material,
    45 xishihunningtu,       !- Name
    Rough,                   !- Roughness
    0.045,                   !- Thickness {m}
    1.51,                    !- Conductivity {W/m-K}
    2300,                    !- Density {kg/m3}
    920,                     !- Specific Heat {J/kg-K}
    0.9,                     !- Thermal Absorptance
    0.7,                     !- Solar Absorptance
    0.7;                     !- Visible Absorptance

Material,
    85 XPS,                  !- Name
    Smooth,                  !- Roughness
    0.085,                   !- Thickness {m}
    0.3,                     !- Conductivity {W/m-K}
    28.5,                    !- Density {kg/m3}
    1647,                    !- Specific Heat {J/kg-K}
    0.9,                     !- Thermal Absorptance
    0.7,                     !- Solar Absorptance
    0.7;                     !- Visible Absorptance

Material,
    15mudiban,               !- Name
    VerySmooth,              !- Roughness
    0.015,                   !- Thickness {m}
    0.18,                    !- Conductivity {W/m-K}
    700,                     !- Density {kg/m3}
    2510,                    !- Specific Heat {J/kg-K}
    0.9,                     !- Thermal Absorptance
    0.7,                     !- Solar Absorptance
    0.7;                     !- Visible Absorptance

Material,
    5jinshuban,              !- Name
    VerySmooth,              !- Roughness
    0.005,                   !- Thickness {m}
    58.2,                    !- Conductivity {W/m-K}
    7850,                    !- Density {kg/m3}
    480,                     !- Specific Heat {J/kg-K}
    0.9,                     !- Thermal Absorptance
    0.7,                     !- Solar Absorptance
    0.7;                     !- Visible Absorptance

Material,
    35bolimianban,           !- Name
    Smooth,                  !- Roughness
    0.035,                   !- Thickness {m}
    0.035,                   !- Conductivity {W/m-K}
    80,                      !- Density {kg/m3}
    1220,                    !- Specific Heat {J/kg-K}
    0.9,                     !- Thermal Absorptance
    0.7,                     !- Solar Absorptance
    0.7;                     !- Visible Absorptance

Material,
    20SuiShiLuanShi,         !- Name
    MediumRough,             !- Roughness
    0.02,                    !- Thickness {m}
    1.4,                     !- Conductivity {W/m-K}
    2200,                    !- Density {kg/m3}
    920,                     !- Specific Heat {J/kg-K}
    0.9,                     !- Thermal Absorptance
    0.7,                     !- Solar Absorptance
    0.7;                     !- Visible Absorptance

Material,
    35NanRanXinJiSuJuBenBan, !- Name
    Rough,                   !- Roughness
    0.035,                   !- Thickness {m}
    0.03,                    !- Conductivity {W/m-K}
    30,                      !- Density {kg/m3}
    1380,                    !- Specific Heat {J/kg-K}
    0.9,                     !- Thermal Absorptance
    0.7,                     !- Solar Absorptance
    0.7;                     !- Visible Absorptance

Material,
    5SBS,                    !- Name
    MediumRough,             !- Roughness
    0.005,                   !- Thickness {m}
    0.23,                    !- Conductivity {W/m-K}
    900,                     !- Density {kg/m3}
    1620,                    !- Specific Heat {J/kg-K}
    0.9,                     !- Thermal Absorptance
    0.7,                     !- Solar Absorptance
    0.7;                     !- Visible Absorptance

Material,
    30shaojietaoli,          !- Name